Circuit: * C:\Git\electronics-and-circuit-engineering\5lab\2task\Draft2.asc

Direct Newton iteration for .op point succeeded.

Date: Tue May 16 21:52:48 2023
Total elapsed time: 0.163 seconds.

tnom = 27
temp = 27
method = modified trap
totiter = 2132
traniter = 2120
tranpoints = 1061
accept = 1059
rejected = 2
matrix size = 13
fillins = 2
solver = Normal
Avg thread counts: 1.1/1.3/1.3/1.1
Matrix Compiler1: 702 bytes object code size  0.6/0.8/[0.3]
Matrix Compiler2: 1.20 KB object code size  0.5/0.8/[0.3]

