Circuit: * C:\Git\electronics-and-circuit-engineering\7lab\scheme1\s1.asc

Direct Newton iteration failed to find .op point.  (Use ".option noopiter" to skip.)
Starting Gmin stepping
Gmin = 10
Gmin = 1.07374
vernier = 0.5
vernier = 0.25
vernier = 0.125
vernier = 0.0625
Gmin = 0.995033
vernier = 0.03125
vernier = 0.015625
vernier = 0.0078125
vernier = 0.00390625
Gmin = 0.999816
vernier = 0.00195312
vernier = 0.000976562
vernier = 0.000488281
Gmin = 0
Gmin stepping failed

Starting source stepping with srcstepmethod=0
Could not converge to DC with sources off!
Starting source stepping with srcstepmethod=1
Could not converge to DC with sources off!
Pseudo Transient failed in finding the operating point at 0 s.
Trouble finding operating point....skipping operating point for Transient analysis.
Changing Tseed to 1e-08
to 2e-08

Date: Sat May 27 15:02:50 2023
Total elapsed time: 0.141 seconds.

tnom = 27
temp = 27
method = modified trap
totiter = 30835
traniter = 2178
tranpoints = 1080
accept = 1063
rejected = 227
matrix size = 14
fillins = 0
solver = Normal
Avg thread counts: 1.1/1.3/1.3/1.1
Matrix Compiler1: 402 bytes object code size  0.1/0.1/[0.1]
Matrix Compiler2: 704 bytes object code size  0.2/0.3/[0.2]

