Circuit: * C:\Git\electronics-and-circuit-engineering\4lab\2task\Draft1.asc

Limiting rise time of source v1 to 1e-07
Limiting fall time of source v1 to 1e-07
Direct Newton iteration for .op point succeeded.

Date: Wed May 10 21:15:58 2023
Total elapsed time: 4.365 seconds.

tnom = 27
temp = 27
method = modified trap
totiter = 202282
traniter = 202250
tranpoints = 100821
accept = 100593
rejected = 228
matrix size = 12
fillins = 0
solver = Normal
Avg thread counts: 1.0/1.0/1.0/1.0
Matrix Compiler1:      33 opcodes  0.8/[0.3]/0.5
Matrix Compiler2: 906 bytes object code size  0.2/0.4/[0.2]

