Circuit: * C:\Git\electronics-and-circuit-engineering\8lab\dac\Draft.asc

Direct Newton iteration failed to find .op point.  (Use ".option noopiter" to skip.)
Starting Gmin stepping
Gmin = 10
Gmin = 1.07374
Gmin = 0.115292
Gmin = 0.0123794
Gmin = 0.00132923
Gmin = 0.000142725
Gmin = 1.5325e-05
Gmin = 1.6455e-06
Gmin = 1.76685e-07
Gmin = 1.89714e-08
Gmin = 2.03704e-09
Gmin = 2.18725e-10
Gmin = 2.34854e-11
Gmin = 2.52173e-12
Gmin = 2.70769e-13
Gmin = 0
Gmin stepping succeeded in finding the operating point.


Date: Sat May 27 16:28:31 2023
Total elapsed time: 0.181 seconds.

tnom = 27
temp = 27
method = modified trap
totiter = 12414
traniter = 12016
tranpoints = 5994
accept = 5159
rejected = 835
matrix size = 21
fillins = 2
solver = Normal
Avg thread counts: 1.0/1.0/1.0/1.0
Matrix Compiler1: 958 bytes object code size  0.7/0.5/[0.3]
Matrix Compiler2: 1.76 KB object code size  0.3/0.4/[0.3]

