Circuit: * C:\Git\electronics-and-circuit-engineering\3lab\1_task\Draft1.asc


Date: Wed May  3 14:38:39 2023
Total elapsed time: 0.110 seconds.

tnom = 27
temp = 27
method = trap
totiter = 30005
traniter = 0
tranpoints = 0
accept = 0
rejected = 0
matrix size = 8
fillins = 0
solver = Normal
Avg thread counts: 1.0/0.0/1.0/1.0
Matrix Compiler1: 344 bytes object code size  0.2/0.3/[0.1]
Matrix Compiler2: 554 bytes object code size  0.2/0.2/[0.1]

