Circuit: * C:\Git\electronics-and-circuit-engineering\5lab\1task\Draft1.asc

Direct Newton iteration for .op point succeeded.

Date: Tue May 16 21:39:26 2023
Total elapsed time: 0.079 seconds.

tnom = 27
temp = 27
method = modified trap
totiter = 2138
traniter = 2126
tranpoints = 1064
accept = 1060
rejected = 4
matrix size = 13
fillins = 2
solver = Normal
Avg thread counts: 1.1/1.3/1.3/1.1
Matrix Compiler1: 702 bytes object code size  0.5/0.3/[0.2]
Matrix Compiler2: 1.20 KB object code size  0.2/0.7/[0.2]

