Circuit: * C:\Git\electronics-and-circuit-engineering\2lab\1task\Draft1.asc

Warning: Multiple definitions of model "2scr375p" Type: BJT
Warning: Multiple definitions of model "bc857b" Type: BJT
Warning: Multiple definitions of model "bc847c" Type: BJT
Warning: Multiple definitions of model "bc847b" Type: BJT
.step u_ce=0
.OP point found by inspection.
.step u_ce=5

Date: Wed Apr 26 15:10:08 2023
Total elapsed time: 0.057 seconds.

tnom = 27
temp = 27
method = trap
totiter = 2004
traniter = 0
tranpoints = 0
accept = 0
rejected = 0
matrix size = 6
fillins = 0
solver = Normal
Avg thread counts: 1.1/0.0/1.3/1.1
Matrix Compiler1: off  [0.1]/0.2/0.1
Matrix Compiler2: 408 bytes object code size  0.1/0.2/[0.1]

