Circuit: * C:\Git\electronics-and-circuit-engineering\2lab\1task\Draft1.asc

Warning: Multiple definitions of model "2scr375p" Type: BJT
Warning: Multiple definitions of model "bc857b" Type: BJT
Warning: Multiple definitions of model "bc847c" Type: BJT
Warning: Multiple definitions of model "bc847b" Type: BJT
Direct Newton iteration for .op point succeeded.
.step u_ce=0
.step u_ce=5

Date: Thu Apr 27 12:00:59 2023
Total elapsed time: 0.091 seconds.

tnom = 27
temp = 27
method = modified trap
totiter = 2448
traniter = 2444
tranpoints = 1045
accept = 1045
rejected = 0
matrix size = 7
fillins = 0
solver = Normal
Avg thread counts: 1.1/1.3/1.3/1.1
Matrix Compiler1: off  0.2/[0.2]/0.3
Matrix Compiler2: off  [0.1]/0.2/0.2

