Circuit: * C:\Git\electronics-and-circuit-engineering\8lab\adc2\Draft4.asc

WARNING: Less than two connections to node y2.  This node is used by r:u14:out:out.
WARNING: Less than two connections to node y1.  This node is used by r:u15:out:out.
WARNING: Less than two connections to node y0.  This node is used by r:u16:out:out.
Direct Newton iteration failed to find .op point.  (Use ".option noopiter" to skip.)
Starting Gmin stepping
Gmin = 10
Gmin = 1.07374
Gmin = 0.115292
Gmin = 0.0123794
Gmin = 0.00132923
Gmin = 0.000142725
Gmin = 1.5325e-05
Gmin = 1.6455e-06
Gmin = 1.76685e-07
Gmin = 1.89714e-08
vernier = 0.5
Gmin = 3.18287e-09
vernier = 0.25
vernier = 0.125
vernier = 0.0625
vernier = 0.03125
vernier = 0.015625
vernier = 0.0078125
vernier = 0.00390625
vernier = 0.00195312
vernier = 0.000976562
vernier = 0.000488281
Gmin = 3.18287e-09
Gmin = 0
Gmin stepping failed

Starting source stepping with srcstepmethod=0
Source Step = 3.0303%
Source Step = 33.3333%
Source Step = 63.6364%
Source Step = 93.9394%
Source stepping succeeded in finding the operating point.

Heightened Def Con from 0.436888 to 0.436888
Heightened Def Con from 0.437515 to 0.437515
Heightened Def Con from 0.687608 to 0.687608
Heightened Def Con from 0.812036 to 0.812036
Heightened Def Con from 0.812299 to 0.812299
Heightened Def Con from 0.81243 to 0.81243
Heightened Def Con from 0.812511 to 0.812511

Date: Sat May 27 17:56:27 2023
Total elapsed time: 1.266 seconds.

tnom = 27
temp = 27
method = modified trap
totiter = 11359
traniter = 9230
tranpoints = 2919
accept = 2442
rejected = 484
matrix size = 304
fillins = 330
solver = Normal
Avg thread counts: 1.0/1.1/1.1/1.0
Matrix Compiler1: 29.80 KB object code size  8.8/7.4/[2.5]
Matrix Compiler2: off  [2.7]/4.5/3.4

