Circuit: * C:\Git\electronics-and-circuit-engineering\4lab\Draft1.asc

Limiting rise time of source v1 to 1e-07
Limiting fall time of source v1 to 1e-07
Direct Newton iteration for .op point succeeded.

Date: Wed May 10 19:43:03 2023
Total elapsed time: 0.066 seconds.

tnom = 27
temp = 27
method = modified trap
totiter = 5370
traniter = 5343
tranpoints = 2244
accept = 1997
rejected = 247
matrix size = 11
fillins = 0
solver = Normal
Avg thread counts: 1.1/1.1/1.1/1.1
Matrix Compiler1: 520 bytes object code size  0.5/0.3/[0.2]
Matrix Compiler2: 799 bytes object code size  0.3/0.3/[0.2]

