Circuit: * C:\Git\electronics-and-circuit-engineering\2lab\2task\Draft1.asc

Warning: Multiple definitions of model "2scr375p" Type: BJT
Warning: Multiple definitions of model "bc857b" Type: BJT
Warning: Multiple definitions of model "bc847c" Type: BJT
Warning: Multiple definitions of model "bc847b" Type: BJT
.step v2=0.7
.step v2=0.9
.step v2=1.1
.step v2=1.3
.step v2=1.5

Date: Wed Apr 26 15:25:38 2023
Total elapsed time: 0.329 seconds.

tnom = 27
temp = 27
method = trap
totiter = 150044
traniter = 0
tranpoints = 0
accept = 0
rejected = 0
matrix size = 6
fillins = 0
solver = Normal
Avg thread counts: 1.0/0.0/1.0/1.0
Matrix Compiler1: off  [0.1]/0.1/0.1
Matrix Compiler2: off  [0.1]/0.2/0.1

