Circuit: * C:\Git\electronics-and-circuit-engineering\2lab\3_1task\Draft2.asc

Warning: Multiple definitions of model "2scr375p" Type: BJT
Warning: Multiple definitions of model "bc857b" Type: BJT
Warning: Multiple definitions of model "bc847c" Type: BJT
Warning: Multiple definitions of model "bc847b" Type: BJT
Direct Newton iteration for .op point succeeded.

Date: Wed Apr 26 22:40:56 2023
Total elapsed time: 0.033 seconds.

tnom = 27
temp = 27
method = trap
totiter = 5
traniter = 0
tranpoints = 0
accept = 0
rejected = 0
matrix size = 9
fillins = 0
solver = Normal
Avg thread counts: 4.0/0.0/4.0/4.0
Matrix Compiler1:      27 opcodes
Matrix Compiler2: 701 bytes object code size
