Circuit: * C:\Git\electronics-and-circuit-engineering\3lab\2_task\Draft1.asc

.step v§e_gs=0.8
.step v§e_gs=0.875
.step v§e_gs=0.95
.step v§e_gs=1.025
.step v§e_gs=1.1
.step v§e_gs=1.175
.step v§e_gs=1.25
.step v§e_gs=1.325
.step v§e_gs=1.4
.step v§e_gs=1.475
.step v§e_gs=1.5

Date: Wed May  3 16:49:27 2023
Total elapsed time: 4.678 seconds.

tnom = 27
temp = 27
method = trap
totiter = 66055
traniter = 0
tranpoints = 0
accept = 0
rejected = 0
matrix size = 8
fillins = 0
solver = Normal
Avg thread counts: 1.0/0.0/1.0/1.0
Matrix Compiler1:      19 opcodes  0.2/[0.2]/0.2
Matrix Compiler2: off  [0.1]/0.2/0.2

