Circuit: * C:\Git\electronics-and-circuit-engineering\2lab\3task\Draft1.asc

Warning: Multiple definitions of model "2scr375p" Type: BJT
Warning: Multiple definitions of model "bc857b" Type: BJT
Warning: Multiple definitions of model "bc847c" Type: BJT
Warning: Multiple definitions of model "bc847b" Type: BJT

Date: Wed Apr 26 16:31:57 2023
Total elapsed time: 0.040 seconds.

tnom = 27
temp = 27
method = trap
totiter = 3004
traniter = 0
tranpoints = 0
accept = 0
rejected = 0
matrix size = 6
fillins = 0
solver = Normal
Avg thread counts: 1.1/0.0/1.2/1.1
Matrix Compiler1: off  [0.1]/0.2/0.2
Matrix Compiler2: 408 bytes object code size  0.1/0.2/[0.1]

